CM SatNOGS 11-element Yagi Antenna
CM 
CM Copyright (C) 2014-2015 Vasilis Tsiligiannis <acinonyx@openwrt.gr>
CM 
CM This program is free software: you can redistribute it and/or modify
CM it under the terms of the GNU General Public License as published by
CM the Free Software Foundation, either version 3 of the License, or
CM (at your option) any later version.
CM 
CM This program is distributed in the hope that it will be useful,
CM but WITHOUT ANY WARRANTY; without even the implied warranty of
CM MERCHANTABILITY or FITNESS FOR A PARTICULAR PURPOSE.  See the
CM GNU General Public License for more details.
CM 
CM You should have received a copy of the GNU General Public License
CM along with this program.  If not, see <http://www.gnu.org/licenses/>.
CM 
CM Tuned at 435MHz
CM Vertical polarization
CM 2m above imperfect ground
CM Ground relative dielectric const. 5, conductivity 1mS/m
CM 8mm cylindrical aluminum wires, conductivity 35MS/m
CM 
CE 
GW      1       41      0.000000e+00    -2.517492e-01   0.000000e+00    0.000000e+00    2.517492e-01    0.000000e+00    5.804015e-03
GW      2       41      2.002385e-01    -2.321606e-01   0.000000e+00    2.002385e-01    2.321606e-01    0.000000e+00    5.804015e-03
GW      3       41      2.756907e-01    -2.198271e-01   0.000000e+00    2.756907e-01    2.198271e-01    0.000000e+00    5.804015e-03
GW      4       41      4.556152e-01    -2.176506e-01   0.000000e+00    4.556152e-01    2.176506e-01    0.000000e+00    5.804015e-03
GW      5       41      6.703638e-01    -2.154741e-01   0.000000e+00    6.703638e-01    2.154741e-01    0.000000e+00    5.804015e-03
GW      6       41      9.199364e-01    -2.125721e-01   0.000000e+00    9.199364e-01    2.125721e-01    0.000000e+00    5.804015e-03
GW      7       41      1.199980e+00    -2.103956e-01   0.000000e+00    1.199980e+00    2.103956e-01    0.000000e+00    5.804015e-03
GW      8       41      1.500338e+00    -2.082190e-01   0.000000e+00    1.500338e+00    2.082190e-01    0.000000e+00    5.804015e-03
GW      9       41      1.815206e+00    -2.067680e-01   0.000000e+00    1.815206e+00    2.067680e-01    0.000000e+00    5.804015e-03
GW      10      41      2.144584e+00    -2.045915e-01   0.000000e+00    2.144584e+00    2.045915e-01    0.000000e+00    5.804015e-03
GW      11      41      2.489923e+00    -2.031405e-01   0.000000e+00    2.489923e+00    2.031405e-01    0.000000e+00    5.804015e-03
GM      0       0       9.000000e+01    0.000000e+00    0.000000e+00    -2.002385e-01   0.000000e+00    0.000000e+00    0.000000e+00
GS      0       0       6.891781e-01    0.000000e+00    0.000000e+00    0.000000e+00    0.000000e+00    0.000000e+00    0.000000e+00
GM     0     0  0.00000E+00  0.00000E+00  0.00000E+00  0.00000E+00  0.00000E+00  2.00000E+00  0.00000E+00
GE     1     0  0.00000E+00  0.00000E+00  0.00000E+00  0.00000E+00  0.00000E+00  0.00000E+00  0.00000E+00
FR     0   101     0      0  4.30000E+02  1.00000E-01  4.40000E+02  0.00000E+00  0.00000E+00  0.00000E+00
EK     0     0     0      0  0.00000E+00  0.00000E+00  0.00000E+00  0.00000E+00  0.00000E+00  0.00000E+00
LD     5     1     0      0  3.50000E+07  0.00000E+00  0.00000E+00  0.00000E+00  0.00000E+00  0.00000E+00
LD     5     2     0      0  3.50000E+07  0.00000E+00  0.00000E+00  0.00000E+00  0.00000E+00  0.00000E+00
LD     5     3     0      0  3.50000E+07  0.00000E+00  0.00000E+00  0.00000E+00  0.00000E+00  0.00000E+00
LD     5     4     0      0  3.50000E+07  0.00000E+00  0.00000E+00  0.00000E+00  0.00000E+00  0.00000E+00
LD     5     5     0      0  3.50000E+07  0.00000E+00  0.00000E+00  0.00000E+00  0.00000E+00  0.00000E+00
LD     5     6     0      0  3.50000E+07  0.00000E+00  0.00000E+00  0.00000E+00  0.00000E+00  0.00000E+00
LD     5     7     0      0  3.50000E+07  0.00000E+00  0.00000E+00  0.00000E+00  0.00000E+00  0.00000E+00
LD     5     8     0      0  3.50000E+07  0.00000E+00  0.00000E+00  0.00000E+00  0.00000E+00  0.00000E+00
LD     5     9     0      0  3.50000E+07  0.00000E+00  0.00000E+00  0.00000E+00  0.00000E+00  0.00000E+00
LD     5    10     0      0  3.50000E+07  0.00000E+00  0.00000E+00  0.00000E+00  0.00000E+00  0.00000E+00
LD     5    11     0      0  3.50000E+07  0.00000E+00  0.00000E+00  0.00000E+00  0.00000E+00  0.00000E+00
KH     0     0     0      0  1.50000E+00  0.00000E+00  0.00000E+00  0.00000E+00  0.00000E+00  0.00000E+00
EX     0     2    21      0  1.00000E+00  0.00000E+00  0.00000E+00  0.00000E+00  0.00000E+00  0.00000E+00
GN     2     0     0      0  5.00000E+00  1.00000E-03  0.00000E+00  0.00000E+00  0.00000E+00  0.00000E+00
RP     0    91    72   1000  0.00000E+00  0.00000E+00  1.00000E+00  5.00000E+00  0.00000E+00  0.00000E+00
EN     0     0     0      0  0.00000E+00  0.00000E+00  0.00000E+00  0.00000E+00  0.00000E+00  0.00000E+00
